Circuit: * C:\Users\Arumugam\Documents\LTspiceXVII\Draft1.asc

Direct Newton iteration for .op point succeeded.

Date: Wed Jun 10 10:47:56 2020
Total elapsed time: 0.118 seconds.

tnom = 27
temp = 27
method = modified trap
totiter = 2787
traniter = 2777
tranpoints = 1297
accept = 1235
rejected = 62
matrix size = 5
fillins = 0
solver = Normal
Matrix Compiler1: 132 bytes object code size  0.1/0.0/[0.0]
Matrix Compiler2: off  [0.1]/0.1/0.1

