Circuit: * C:\Users\Arumugam\Desktop\mos_inverter.asc

Warning: Multiple definitions of model "p_mos" Type: BSIM3
Warning: Multiple definitions of model "n_mos" Type: BSIM3
Ignoring BSIM parameter XL
Ignoring BSIM parameter XW
Ignoring BSIM parameter XL
Ignoring BSIM parameter XW
Warning: Pd = 0 is less than W.
Warning: Ps = 0 is less than W.
Warning: Pd = 0 is less than W.
Warning: Ps = 0 is less than W.
Direct Newton iteration for .op point succeeded.

Date: Tue Jun 16 10:41:10 2020
Total elapsed time: 0.171 seconds.

tnom = 27
temp = 27
method = modified trap
totiter = 2665
traniter = 2659
tranpoints = 1297
accept = 1235
rejected = 62
matrix size = 5
fillins = 0
solver = Normal
Matrix Compiler1: 204 bytes object code size  0.1/0.1/[0.0]
Matrix Compiler2: 311 bytes object code size  0.1/0.1/[0.1]

