Circuit: * C:\Users\Arumugam\Desktop\mos_inverter.asc
Date: Tue Jun 16 10:41:10 2020
Total elapsed time: 0.171 seconds.

tnom = 27
temp = 27
method = modified trap
totiter = 2665
traniter = 2659
tranpoints = 1297
accept = 1235
rejected = 62
matrix size = 5
fillins = 0
solver = Normal
Matrix Compiler1: 204 bytes object code size  0.1/0.1/[0.0]
Matrix Compiler2: 311 bytes object code size  0.1/0.1/[0.1]

